[General]
#network = flora.simulations.LoRaNetworkTest #14/09/2022
**.maxTransmissionDuration = 4s
**.energyDetection = -110dBm

#cmdenv-autoflush = true
#cmdenv-status-frequency = 10000000s
#cmdenv-express-mode = false
#cmdenv-output-file = cmd_env_log.txt
**.vector-recording = true

record-eventlog = true
eventlog-file = ../results/clusters_circle-${runnumber}.elog

rng-class = "cMersenneTwister"
**.loRaGW[*].numUdpApps = 1
**.loRaGW[0].packetForwarder.localPort = 2000
**.loRaGW[0].packetForwarder.destPort = 1000
**.loRaGW[0].packetForwarder.destAddresses = "networkServer"
**.loRaGW[0].packetForwarder.indexNumber = 0

**.networkServer.numApps = 1
**.networkServer.**.evaluateADRinServer = false
**.networkServer.app[0].typename = "NetworkServerApp"
**.networkServer.app[0].destAddresses = "loRaGW[0]"
**.networkServer.app[0].destPort = 2000
**.networkServer.app[0].localPort = 1000
**.networkServer.app[0].adrMethod = ${"avg"}

**.numberOfPacketsToSend = 0 #${numberOfPAckets = 200..5000 step 200} #100 #obviously 0 means infinite number of packets
sim-time-limit = 1d
simtime-resolution = -11
repeat = 30

**.timeToFirstPacket = normal(500s, 200s) #exponential(1000s)
**.timeToNextPacket = normal(500s, 0.5s) #exponential(1000s)
**.alohaChannelModel = true

#nodes features
**.numberOfNodes = 9
**.constraintAreaMaxX = 1500m
**.constraintAreaMaxY = 1500m

######################################################27/09/2022

output-scalar-file = ../results/clusters_circle-s${runnumber}.ini.sca
**.loRaNodes[0].**.initialX = 100m
**.loRaNodes[0].**.initialY = 200m
**.loRaNodes[1].**.initialX = 150m
**.loRaNodes[1].**.initialY = 200m
**.loRaNodes[2].**.initialX = 125m
**.loRaNodes[2].**.initialY = 195m

**.loRaNodes[3].**.initialX = 1000m
**.loRaNodes[3].**.initialY = 200m
**.loRaNodes[4].**.initialX = 1050m
**.loRaNodes[4].**.initialY = 200m

**.loRaNodes[5].**.initialX = 350m
**.loRaNodes[5].**.initialY = 800m
**.loRaNodes[6].**.initialX = 370m
**.loRaNodes[6].**.initialY = 800m
**.loRaNodes[7].**.initialX = 360m
**.loRaNodes[7].**.initialY = 820m
**.loRaNodes[8].**.initialX = 380m
**.loRaNodes[8].**.initialY = 820m



**.loRaNodes[0].**initialLoRaSF = 9
**.loRaNodes[0].**initialLoRaTP = 14dBm
**.loRaNodes[1].**initialLoRaSF = 10
**.loRaNodes[1].**initialLoRaTP = 14dBm
**.loRaNodes[2].**initialLoRaSF = 11
**.loRaNodes[2].**initialLoRaTP = 14dBm

**.loRaNodes[3].**initialLoRaSF = 11
**.loRaNodes[3].**initialLoRaTP = 14dBm
**.loRaNodes[4].**initialLoRaSF = 12
**.loRaNodes[4].**initialLoRaTP = 14dBm

**.loRaNodes[5].**initialLoRaSF = 7
**.loRaNodes[5].**initialLoRaTP = 14dBm
**.loRaNodes[6].**initialLoRaSF = 8
**.loRaNodes[6].**initialLoRaTP = 14dBm
**.loRaNodes[7].**initialLoRaSF = 9
**.loRaNodes[7].**initialLoRaTP = 14dBm
**.loRaNodes[8].**initialLoRaSF = 10
**.loRaNodes[8].**initialLoRaTP = 14dBm


**.loRaNodes[*].**.initFromDisplayString = false
**.loRaNodes[*].**.evaluateADRinNode = false
**.loRaNodes[*].**initialLoRaBW = 125 kHz #same BW for all
**.loRaNodes[*].**initialLoRaCR = 4 #same CR for all
**.loRaNodes[*].numApps = 1
**.loRaNodes[*].app[0].typename = "SimpleLoRaApp"



[Config CircleMobility]
network = flora.simulations.LoRaNetworkTest
*.numberOfGateways = 1
**.loRaGW[0].mobility.typename = "CircleMobility"
**.loRaGW[0].mobility.cx = 500m
**.loRaGW[0].mobility.cy = 500m
**.loRaGW[0].mobility.r = 300m



**.LoRaGWNic.radio.iAmGateway = true
**.loRaGW[*].**.initFromDisplayString = false
**.loRaGW[0].mobility.speed = 50mps
**.loRaGW[0].mobility.startAngle = 0deg


#power consumption features
**.loRaNodes[*].LoRaNic.radio.energyConsumer.typename = "LoRaEnergyConsumer"
**.loRaNodes[*].**.energySourceModule = "^.IdealEpEnergyStorage"
**.loRaNodes[*].LoRaNic.radio.energyConsumer.configFile = xmldoc("../energyConsumptionParameters.xml")

#general features
**.sigma = 3.57
**.constraintAreaMinX = 0m
**.constraintAreaMinY = 0m
**.constraintAreaMinZ = 0m
**.constraintAreaMaxZ = 0m

LoRaNetworkTest.**.radio.separateTransmissionParts = false
LoRaNetworkTest.**.radio.separateReceptionParts = false


**.ipv4Delayer.config = xmldoc("../cloudDelays.xml")
**.radio.radioMediumModule = "LoRaMedium"
**.LoRaMedium.pathLossType = "LoRaLogNormalShadowing"
**.minInterferenceTime = 0s
**.displayAddresses = false

# cache features
**.LoRaMedium.mediumLimitCacheType = "LoRaMediumCache"
**.LoRaMedium.rangeFilter = "communicationRange"
**.LoRaMedium.neighborCacheType = "LoRaNeighborCache"
**.LoRaMedium.neighborCache.range = 546m
**.LoRaMedium.neighborCache.refillPeriod = 3000s